/*--------------------------------*- C++ -*----------------------------------*\
| =========                 |                                                 |
| \\      /  F ield         | OpenFOAM: The Open Source CFD Toolbox           |
|  \\    /   O peration     | Version:  2412                                  |
|   \\  /    A nd           | Website:  www.openfoam.com                      |
|    \\/     M anipulation  |                                                 |
\*---------------------------------------------------------------------------*/
FoamFile
{
    version     2.0;
    format      ascii;
    arch        "LSB;label=32;scalar=64";
    class       polyBoundaryMesh;
    location    "constant/fluid/polyMesh";
    object      boundary;
}
// * * * * * * * * * * * * * * * * * * * * * * * * * * * * * * * * * * * * * //

5
(
    inlet
    {
        type            patch;
        nFaces          20;
        startFace       13188;
    }
    outlet
    {
        type            patch;
        nFaces          20;
        startFace       13208;
    }
    interface
    {
        type            patch;
        nFaces          80;
        startFace       13228;
    }
    walls
    {
        type            wall;
        inGroups        1(wall);
        nFaces          512;
        startFace       13308;
    }
    frontAndBack
    {
        type            empty;
        inGroups        1(empty);
        nFaces          13504;
        startFace       13820;
    }
)

// ************************************************************************* //
