/*--------------------------------*- C++ -*----------------------------------*\
| =========                 |                                                 |
| \\      /  F ield         | OpenFOAM: The Open Source CFD Toolbox           |
|  \\    /   O peration     | Version:  2312                                  |
|   \\  /    A nd           | Website:  www.openfoam.com                      |
|    \\/     M anipulation  |                                                 |
\*---------------------------------------------------------------------------*/
FoamFile
{
    version     2.0;
    format      ascii;
    arch        "LSB;label=32;scalar=64";
    class       polyBoundaryMesh;
    location    "constant/polyMesh";
    object      boundary;
}
// * * * * * * * * * * * * * * * * * * * * * * * * * * * * * * * * * * * * * //


6
(
    back
    {
        type            empty;
        physicalType    empty;
        nFaces          12870;
        startFace       25513;
    }

    symmetry-y
    {
        type            symmetry;
        physicalType    symmetry;
        nFaces          117;
        startFace       38383;
    }

    outer
    {
        type            patch;
        physicalType    patch;
        nFaces          110;
        startFace       38500;
    }

    symmetry-x
    {
        type            symmetry;
        physicalType    symmetry;
        nFaces          117;
        startFace       38610;
    }

    inner
    {
        type            patch;
        physicalType    patch;
        nFaces          110;
        startFace       38727;
    }

    front
    {
        type            empty;
        physicalType    empty;
        nFaces          12870;
        startFace       38837;
    }

)


// ************************************************************************* //
