/*--------------------------------*- C++ -*----------------------------------*\
| solids4foam: solid mechanics and fluid-solid interaction simulations        |
| Version:     v2.0                                                           |
| Web:         https://solids4foam.github.io                                  |
| Disclaimer:  This offering is not approved or endorsed by OpenCFD Limited,  |
|              producer and distributor of the OpenFOAM software via          |
|              www.openfoam.com, and owner of the OPENFOAM® and OpenCFD®      |
|              trade marks.                                                   |
\*---------------------------------------------------------------------------*/
FoamFile
{
    version     2.0;
    format      ascii;
    class       dictionary;
    location    "constant";
    object      solidProperties;
}
// * * * * * * * * * * * * * * * * * * * * * * * * * * * * * * * * * * * * * //

//solidModel     linearGeometryTotalDisplacement;
solidModel     nonLinearGeometryTotalLagrangianTotalDisplacement;

"linearGeometryTotalDisplacementCoeffs|nonLinearGeometryTotalLagrangianTotalDisplacementCoeffs"
{
    // Solution algorithm
    //solutionAlgorithm implicitSegregated;
    solutionAlgorithm PETScSNES;
    //solutionAlgorithm explicit;

    // PETSc options file used by PETScSNES
    optionsFile petscOptions.hypre;

    // Predictor D at the start of a new time step using U and A
    predictor yes;

    stabilisation
    {
        type        RhieChow;
        //type        alpha;
        scaleFactor 0.5;
    }
    solvePressure true;
    pressureSmoothingCoeff 1.0;
    stabilisationType oosterlee;
    omega    omega [0 0 0 0 0 0 0] 0.125;
    omegaTau    omegaTau [0 0 0 0 0 0 0] 0.0;
    mu          mu [1 -1 -2 0 0 0 0] 2.62507e+07;
    lambda      lambda [1 -1 -2 0 0 0 0] 5.24856e+07;
}

// ************************************************************************* //
