/*--------------------------------*- C++ -*----------------------------------*\
| solids4foam: solid mechanics and fluid-solid interaction simulations        |
| Version:     v2.0                                                           |
| Web:         https://solids4foam.github.io                                  |
| Disclaimer:  This offering is not approved or endorsed by OpenCFD Limited,  |
|              producer and distributor of the OpenFOAM software via          |
|              www.openfoam.com, and owner of the OPENFOAM® and OpenCFD®      |
|              trade marks.                                                   |
\*---------------------------------------------------------------------------*/
FoamFile
{
    version     2.0;
    format      ascii;
    class       dictionary;
    location    "constant";
    object      solidProperties;
}
// * * * * * * * * * * * * * * * * * * * * * * * * * * * * * * * * * * * * * //

solidModel     linearGeometryTotalDisplacement;

"linearGeometryTotalDisplacementCoeffs|unsLinearGeometryCoeffs"
{
    // Solution algorithm
    //solutionAlgorithm implicitSegregated;
    solutionAlgorithm PETScSNES;
    //solutionAlgorithm explicit;

    // PETSc options file used by PETScSNES
    optionsFile petscOptions.lu;
    //optionsFile petscOptions.hypre;
    //optionsFile petscOptions.ilu;
    //optionsFile petscOptions.seg.hypre;
    //optionsFile petscOptions.physics;

    // Settings for the "physics" preconditioner, which is a segregated solid
    // solver
    preconditioner
    {
        // The "simplifiedEquation" approach solves a simple Laplace equation,
        // while the non-basic approach solves the full solid mechanics system
        simplifiedEquation yes;
    }
}

// ************************************************************************* //
