/*--------------------------------*- C++ -*----------------------------------*\
| solids4foam: solid mechanics and fluid-solid interaction simulations        |
| Version:     v2.0                                                           |
| Web:         https://solids4foam.github.io                                  |
| Disclaimer:  This offering is not approved or endorsed by OpenCFD Limited,  |
|              producer and distributor of the OpenFOAM software via          |
|              www.openfoam.com, and owner of the OPENFOAM® and OpenCFD®      |
|              trade marks.                                                   |
\*---------------------------------------------------------------------------*/
FoamFile
{
    version     2.0;
    format      ascii;
    class       dictionary;
    location    "constant";
    object      solidProperties;
}
// * * * * * * * * * * * * * * * * * * * * * * * * * * * * * * * * * * * * * //

solidModel     linearGeometryTotalDisplacement;

"linearGeometryTotalDisplacementCoeffs|unsLinearGeometryCoeffs"
{
    // Solution algorithm
    solutionAlgorithm implicitSegregated;
    //solutionAlgorithm PETScSNES;
    //solutionAlgorithm explicit;

    // Solution tolerance
    // Force convergence by the drop in the equation residual instead
    sTol 0;
}

// ************************************************************************* //
