/*--------------------------------*- C++ -*----------------------------------*\
| =========                 |                                                 |
| \\      /  F ield         | foam-extend: Open Source CFD                    |
|  \\    /   O peration     | Version:     4.1                                |
|   \\  /    A nd           | Web:         http://www.foam-extend.org         |
|    \\/     M anipulation  |                                                 |
\*---------------------------------------------------------------------------*/
FoamFile
{
    version     2.0;
    format      ascii;
    class       polyBoundaryMesh;
    location    "constant/polyMesh";
    object      boundary;
}
// * * * * * * * * * * * * * * * * * * * * * * * * * * * * * * * * * * * * * //

7
(
    top
    {
        type            patch;
        nFaces          13;
        startFace       467;
    }
    left-bottom
    {
        type            symmetryPlane;
        inGroups        1(symmetryPlane);
        nFaces          6;
        startFace       480;
    }
    left-top
    {
        type            symmetryPlane;
        inGroups        1(symmetryPlane);
        nFaces          6;
        startFace       486;
    }
    bottom
    {
        type            patch;
        nFaces          18;
        startFace       492;
    }
    tractionFree
    {
        type            patch;
        nFaces          55;
        startFace       510;
    }
    front
    {
        type            empty;
        inGroups        1(empty);
        nFaces          258;
        startFace       565;
    }
    back
    {
        type            empty;
        inGroups        1(empty);
        nFaces          258;
        startFace       823;
    }
)


// ************************************************************************* //
