/*--------------------------------*- C++ -*----------------------------------*\
| solids4foam: solid mechanics and fluid-solid interaction simulations        |
| Version:     v2.0                                                           |
| Web:         https://solids4foam.github.io                                  |
| Disclaimer:  This offering is not approved or endorsed by OpenCFD Limited,  |
|              producer and distributor of the OpenFOAM software via          |
|              www.openfoam.com, and owner of the OPENFOAM® and OpenCFD®      |
|              trade marks.                                                   |
\*---------------------------------------------------------------------------*/
FoamFile
{
    version     2.0;
    format      ascii;
    class       dictionary;
    object      controlDict;
}
// * * * * * * * * * * * * * * * * * * * * * * * * * * * * * * * * * * * * * //

application     solids4Foam;

startFrom       startTime;

startTime       0;

stopAt          endTime;

endTime         10;

deltaT          0.1;

writeControl    timeStep;

writeInterval   5;

purgeWrite      0;

cycleWrite      0;

writeFormat     ascii;

writePrecision  6;

writeCompression uncompressed;

timeFormat      general;

timePrecision   6;

runTimeModifiable no;

functions
{
    sphereForce
    {
        type solidForces;
        historyPatch sphere-displacement;
    }

    blockForce
    {
        type solidForces;
        historyPatch block-fixed;
    }

    sphereTorque
    {
        type solidTorque;
        historyPatch sphere-displacement;
        pointOnAxis (0 0 0);
        axisDirection (0 1 0);
    }

    blockTorque
    {
        type solidTorque;
        historyPatch block-fixed;
        pointOnAxis (0 0 0);
        axisDirection (0 1 0);
    }
}

// ************************************************************************* //
