/*--------------------------------*- C++ -*----------------------------------*\
| solids4foam: solid mechanics and fluid-solid interaction simulations        |
| Version:     v2.0                                                           |
| Web:         https://solids4foam.github.io                                  |
| Disclaimer:  This offering is not approved or endorsed by OpenCFD Limited,  |
|              producer and distributor of the OpenFOAM software via          |
|              www.openfoam.com, and owner of the OPENFOAM® and OpenCFD®      |
|              trade marks.                                                   |
\*---------------------------------------------------------------------------*/
FoamFile
{
    version     2.0;
    format      ascii;
    class       dictionary;
    object      extrudeMeshDict;
}
// * * * * * * * * * * * * * * * * * * * * * * * * * * * * * * * * * * * * * //

constructFrom patch;

sourceCase    "$FOAM_CASE";
sourcePatches (front);

// If construct from patch: patch to use for back (can be same as sourcePatch)
exposedPatchName front;

// Flip surface normals before usage. Valid only for extrude from surface or
// patch.
flipNormals false;

//- Linear extrusion in point-normal direction
//extrudeModel        linearNormal;

//- Single layer linear extrusion in point-normal direction
//  with empty patches on front and back
extrudeModel        plane;

//- Linear extrusion in specified direction
//extrudeModel        linearDirection;

//- Sector extrusion
//extrudeModel        sector;

//- Wedge extrusion of a single layer
//  with wedge patches on front and back
//extrudeModel        wedge;

//- Extrudes into sphere around (0 0 0)
//extrudeModel        linearRadial;

//- Extrudes into sphere around (0 0 0) with specified radii
//extrudeModel        radial;

//- Extrudes into sphere with grading according to pressure (atmospherics)
//extrudeModel        sigmaRadial;

//- Extrudes by interpolating along path inbetween two (topologically identical)
//  surfaces (e.g. one is an offsetted version of the other)
//extrudeModel        offsetSurface;

nLayers             1;

expansionRatio      1.0;

sectorCoeffs    //<- Also used for wedge
{
    point       (0 0.1 -0.05);
    axis        (-1 0 0);
    angle       360;  // For nLayers=1 assume symmetry so angle/2 on each side
}

linearNormalCoeffs
{
    thickness       0.1;
}

linearDirectionCoeffs
{
    direction       (0 1 0);
    thickness       0.05;
}

// Do front and back need to be merged? Usually only makes sense for 360
// degree wedges.
mergeFaces false;

// Merge small edges. Fraction of bounding box.
mergeTol 0;



// ************************************************************************* //
