/*--------------------------------*- C++ -*----------------------------------*\
| =========                 |                                                 |
| \\      /  F ield         | OpenFOAM: The Open Source CFD Toolbox           |
|  \\    /   O peration     | Version:  v2012                                 |
|   \\  /    A nd           | Website:  www.openfoam.com                      |
|    \\/     M anipulation  |                                                 |
\*---------------------------------------------------------------------------*/
FoamFile
{
    version     2.0;
    format      ascii;
    class       dictionary;
    object      changeDictionaryDict;
}
// * * * * * * * * * * * * * * * * * * * * * * * * * * * * * * * * * * * * * //

boundary
{
    front
    {
        type empty;
        physicalType empty;
    }
    back
    {
        type empty;
        physicalType empty;
    }
    // down
    // {
    //     type symmetry;
    //     physicalType symmetry;
    // }
    // left
    // {
    //     type symmetry;
    //     physicalType symmetry;
    // }
    down
    {
        type patch;
        physicalType patch;
    }
    left
    {
        type patch;
        physicalType patch;
    }
}

// ************************************************************************* //
