/*--------------------------------*- C++ -*----------------------------------*\
| =========                 |                                                 |
| \\      /  F ield         | foam-extend: Open Source CFD                    |
|  \\    /   O peration     | Version:     4.0                                |
|   \\  /    A nd           | Web:         http://www.foam-extend.org         |
|    \\/     M anipulation  |                                                 |
\*---------------------------------------------------------------------------*/
FoamFile
{
    version     2.0;
    format      ascii;
    class       dictionary;
    location    system;
    object      sampleDict;
}
// * * * * * * * * * * * * * * * * * * * * * * * * * * * * * * * * * * * * //

// Set output format : choice of
//      xmgr
//      jplot
//      gnuplot
//      raw
setFormat xmgr;

// Surface output format. Choice of
//      null        : suppress output
//      foamFile    : separate points, faces and values file
//      dx          : DX scalar or vector format
//      vtk         : VTK ascii format
//      raw         : x y z value format for use with e.g. gnuplot 'splot'.
//
// Note:
// other formats such as obj, stl, etc can also be written (by proxy)
// but without any values!
surfaceFormat raw;//vtk;


// interpolationScheme. choice of
//      cell          : use cell-centre value only; constant over cells (default)
//      cellPoint     : use cell-centre and vertex values
//      cellPointFace : use cell-centre, vertex and face values.
// 1] vertex values determined from neighbouring cell-centre values
// 2] face values determined using the current face interpolation scheme
//    for the field (linear, gamma, etc.)
interpolationScheme cellPointFace;

// Fields to sample.
fields
(
    Dx Dz slavePressure_cylinderContact slaveShearTraction_cylinderContact
);

sets
(
);

surfaces
(
    cylinderContact
    {
        type            patch;
        patchName       cylinderContact;
        triangulate     false;
    }

    punchContact
    {
        type            patch;
        patchName       punchContact;
        triangulate     false;
    }
);


// *********************************************************************** //
