/*--------------------------------*- C++ -*----------------------------------*\
| solids4foam: solid mechanics and fluid-solid interaction simulations        |
| Version:     v2.0                                                           |
| Web:         https://solids4foam.github.io                                  |
| Disclaimer:  This offering is not approved or endorsed by OpenCFD Limited,  |
|              producer and distributor of the OpenFOAM software via          |
|              www.openfoam.com, and owner of the OPENFOAM® and OpenCFD®      |
|              trade marks.                                                   |
\*---------------------------------------------------------------------------*/
FoamFile
{
    version     2.0;
    format      ascii;
    class       volVectorField;
    location    "0";
    object      DD;
}
// * * * * * * * * * * * * * * * * * * * * * * * * * * * * * * * * * * * * * //

dimensions      [0 1 0 0 0 0 0];

internalField   uniform (0 0 0);

boundaryField
{
    front
    {
        type            solidWedge;
        patchType       wedge;
        value           uniform (0 0 0);
    }
    back
    {
        type            solidWedge;
        patchType       wedge;
        value           uniform (0 0 0);
    }
    cylinderFixed
    {
        type            fixedDisplacement;
        value           uniform (0 0 0);
    }
    punchLoading
    {
        type            fixedDisplacement;
        value           uniform (0 0 -0.000321150330052);
    }
    tractionFree
    {
        type            solidTraction;
        gradient        uniform ( 0 0 0 );
        traction        uniform ( 0 0 0 );
        pressure        uniform 0;
        value           uniform (0 0 0);
    }
    cylinderContact
    {
        type            solidContact;
        shadowPatch     punchContact;
        master          no;
        value           uniform (0 0 0);
    }
    punchContact
    {
        type            solidContact;
        master          yes;
        rigidMaster     no;
        shadowPatch     cylinderContact;
        normalContactModel standardPenalty;
        standardPenaltyNormalModelDict
        {
            relaxationFactor 0.008;
            penaltyScale     3;
        }
        //frictionContactModel frictionless;
        frictionContactModel standardPenalty;
        standardPenaltyFrictionModelDict
        {
            relaxationFactor  0.008;
            penaltyScale      3;
            frictionLaw       coulomb;
            frictionLawDict
            {
                frictionCoeff 0.1;
            }
        }
        value           uniform (0 0 0);
    }
}


// ************************************************************************* //
