/*--------------------------------*- C++ -*----------------------------------*\
| solids4foam: solid mechanics and fluid-solid interaction simulations        |
| Version:     v2.0                                                           |
| Web:         https://solids4foam.github.io                                  |
| Disclaimer:  This offering is not approved or endorsed by OpenCFD Limited,  |
|              producer and distributor of the OpenFOAM software via          |
|              www.openfoam.com, and owner of the OPENFOAM® and OpenCFD®      |
|              trade marks.                                                   |
\*---------------------------------------------------------------------------*/
FoamFile
{
    version     2.0;
    format      ascii;
    class       dictionary;
    object      controlDict;
}
// * * * * * * * * * * * * * * * * * * * * * * * * * * * * * * * * * * * * * //

application     solids4Foam;

startFrom       startTime;

startTime       0;

stopAt          endTime;

endTime         0.51;

deltaT          0.00125;

writeControl    runTime;

writeInterval   1;

cycleWrite      0;

writeFormat     ascii;

writePrecision  6;

timeFormat      general;

timePrecision   6;

runTimeModifiable no;

functions
{
    pointDisp
    {
        type          solidPointDisplacement;
        point         (0.1 0.1 2);
    }
}

// ************************************************************************* //
