/*--------------------------------*- C++ -*----------------------------------*\
| solids4foam: solid mechanics and fluid-solid interaction simulations        |
| Version:     v2.0                                                           |
| Web:         https://solids4foam.github.io                                  |
| Disclaimer:  This offering is not approved or endorsed by OpenCFD Limited,  |
|              producer and distributor of the OpenFOAM software via          |
|              www.openfoam.com, and owner of the OPENFOAM® and OpenCFD®      |
|              trade marks.                                                   |
\*---------------------------------------------------------------------------*/
FoamFile
{
    version     2.0;
    format      ascii;
    class       dictionary;
    object      blockMeshDict;
}
// * * * * * * * * * * * * * * * * * * * * * * * * * * * * * * * * * * * * * //

convertToMeters 1;

vertices
(
    (0 0 -1)
    (1 0 -1)
    (1 1 -1)
    (0 1 -1)
    (0 0 0)
    (1 0 0)
    (1 1 0)
    (0 1 0)
);

blocks
(
    hex (0 1 2 3 4 5 6 7) (20 20 30) simpleGrading (20 20 0.05)
);

edges
(
);

boundary
(
    bottom
    {
        type patch;
        faces
        (
            (3 2 1 0)
        );
    }
    
    sides
    {
        type patch;
        faces
        (
            (5 1 2 6)
            (7 6 2 3)
        );
    }

    symmetry-x
    {
        type symmetryPlane;
        faces
        (
            (4 7 3 0)
        );
    }
    
    symmetry-y
    {
        type symmetryPlane;
        faces
        (
            (4 0 1 5)
        );
    }

    top
    {
        type patch;
        faces
        (
            (5 6 7 4)
        );
    }
);

mergePatchPairs
(
);

// ************************************************************************* //
