/*--------------------------------*- C++ -*----------------------------------*\
| solids4foam: solid mechanics and fluid-solid interaction simulations        |
| Version:     v2.0                                                           |
| Web:         https://solids4foam.github.io                                  |
| Disclaimer:  This offering is not approved or endorsed by OpenCFD Limited,  |
|              producer and distributor of the OpenFOAM software via          |
|              www.openfoam.com, and owner of the OPENFOAM® and OpenCFD®      |
|              trade marks.                                                   |
\*---------------------------------------------------------------------------*/
FoamFile
{
    version     2.0;
    format      ascii;
    class       dictionary;
    object      fvSchemes;
}
// * * * * * * * * * * * * * * * * * * * * * * * * * * * * * * * * * * * * * //

d2dt2Schemes
{
    default            none;
    d2dt2(D)           steadyState;
}

ddtSchemes
{
    default            none;
    ddt(U)             Euler; //backward;
    ddt(p)             Euler; //backward;
    ddt(D)             steadyState;
    d2dt2(D)           steadyState;
}

gradSchemes
{
    default            leastSquares;
    grad(D)            leastSquaresS4f;
}

divSchemes
{
    default            none;
    jacobian-div(phi,U) Gauss upwind;
    // div(phi,U)         Gauss linearUpwind cellLimited leastSquares 1;
    //div(phi,U)         Gauss upwind;
    div(phi,U)         Gauss linearUpwind grad(U);
    div((nuEff*dev2(T(grad(U))))) Gauss linear;
    div((nuEff*dev(T(grad(U))))) Gauss linear;
    div(U)             Gauss linear;
}

laplacianSchemes
{
    default            Gauss linear corrected;
}

interpolationSchemes
{
    default            linear;
    interpolate(U)     skewCorrected linear;
}

snGradSchemes
{
    default            corrected;
}

fluxRequired
{
    default            no;
    p;
}

// ************************************************************************* //
