/*--------------------------------*- C++ -*----------------------------------*\
| solids4foam: solid mechanics and fluid-solid interaction simulations        |
| Version:     v2.0                                                           |
| Web:         https://solids4foam.github.io                                  |
| Disclaimer:  This offering is not approved or endorsed by OpenCFD Limited,  |
|              producer and distributor of the OpenFOAM software via          |
|              www.openfoam.com, and owner of the OPENFOAM® and OpenCFD®      |
|              trade marks.                                                   |
\*---------------------------------------------------------------------------*/
FoamFile
{
    version     2.0;
    format      ascii;
    class       dictionary;
    object      mechanicalProperties;
}
// * * * * * * * * * * * * * * * * * * * * * * * * * * * * * * * * * * * * * //

planeStress     no;

mechanical
(
    rubber
    {
        type            MooneyRivlinElastic;

        rho             rho [1 -3 0 0 0 0 0] 1000;

        K               K [1 -1 -2 0 0 0 0] 1000;
	c10             c10 [1 -1 -2 0 0 0 0] 0.31237237e+6;
	c01             c01 [1 -1 -2 0 0 0 0] 0.00054257e+6;
	c11             c11 [1 -1 -2 0 0 0 0] 0.00006962e+6;

        //type            OgdenElastic;

        // rho             rho [1 -3 0 0 0 0 0] 1000;

        // K               K [1 -1 -2 0 0 0 0] 1.410e+9;
        // mu1             mu1 [1 -1 -2 0 0 0 0] 0.63e6;
	// mu2             mu2 [1 -1 -2 0 0 0 0] 0.0012e6;
	// mu3             mu3 [1 -1 -2 0 0 0 0] -0.01e6;
	// alpha1          alpha1 [0 0 0 0 0 0 0] 1.3;
	// alpha2          alpha2 [0 0 0 0 0 0 0] 5;
	// alpha3          alpha3 [0 0 0 0 0 0 0] -2;

	// // To solve pressure Poisson equation
	solvePressureEqn		yes;

	// // Pressure smoothing scale factor
	 pressureSmoothingScaleFactor 100;
    }
);

// ************************************************************************* //
