/*--------------------------------*- C++ -*----------------------------------*\
| =========                 |                                                |
| \\      /  F ield         | cfMesh: A library for mesh generation          |
|  \\    /   O peration     |                                                |
|   \\  /    A nd           | Author: Franjo Juretic                         |
|    \\/     M anipulation  | E-mail: franjo.juretic@c-fields.com            |
\*---------------------------------------------------------------------------*/

FoamFile
{
    version   2.0;
    format    ascii;
    class     dictionary;
    location  "system";
    object    meshDict;
}

// * * * * * * * * * * * * * * * * * * * * * * * * * * * * * * * * * * * * * //

checkForGluedMesh 1;
surfaceFile "domain_scaled_edges.fms";
maxCellSize 0.001;
boundaryCellSize $maxCellSize;

localRefinement
{
}

surfaceMeshRefinement
{
}

objectRefinements
{
}

boundaryLayers
{
    nLayers           1;
    thicknessRatio    1;
    allowDiscontinuity 0;
}

renameBoundary
{
}

// ************************************************************************* //
